Circuit: * C:\Users\shane\Documents\GitHub\coLAS\LTSpice\HC-SR04_receiver.asc

Direct Newton iteration for .op point succeeded.

Date: Sun Apr  5 17:03:02 2020
Total elapsed time: 0.405 seconds.

tnom = 27
temp = 27
method = modified trap
totiter = 32031
traniter = 32018
tranpoints = 16010
accept = 9616
rejected = 6394
matrix size = 31
fillins = 45
solver = Normal
Matrix Compiler1: 3.98 KB object code size  1.0/0.5/[0.3]
Matrix Compiler2: off  [0.4]/0.5/0.5

