Circuit: * C:\Users\shane\Documents\GitHub\coLAS\LTSpice\HC-SR04_receiver.asc

Early termination of direct N-R iteration.
Direct Newton iteration failed to find .op point.  (Use ".option noopiter" to skip.)
Starting Gmin stepping
Gmin = 10
vernier = 0.5
Gmin = 1.86414
vernier = 0.666667
vernier = 0.333333
vernier = 0.166667
vernier = 0.0833333
Gmin = 1.16377
vernier = 0.0416667
vernier = 0.0208333
vernier = 0.0104167
vernier = 0.00520833
Gmin = 1.14581
vernier = 0.00260417
vernier = 0.00130208
vernier = 0.000651042
vernier = 0.000488281
Gmin = 1.14487
Gmin = 0
Gmin stepping succeeded in finding the operating point.

.step rx=1
.step rx=2

Date: Tue Apr  7 22:56:57 2020
Total elapsed time: 1.338 seconds.

tnom = 27
temp = 27
method = modified trap
totiter = 5436
traniter = 3893
tranpoints = 1564
accept = 1272
rejected = 292
matrix size = 91
fillins = 691
solver = Normal
Thread vector: 12.9/9.4[2] 5.0/4.1[2] 4.9/4.6[1] 1.1/1.7[1]  2592/500
Matrix Compiler1: 54.56 KB object code size  11.2/6.8/[4.2]
Matrix Compiler2: 18.83 KB object code size  4.5/3.7/[1.8]

