Circuit: * C:\Users\shane\Documents\GitHub\coLAS\LTSpice\HC-SR04_receiver.asc

Direct Newton iteration for .op point succeeded.

Date: Sat Apr  4 20:33:33 2020
Total elapsed time: 0.311 seconds.

tnom = 27
temp = 27
method = modified trap
totiter = 33641
traniter = 33628
tranpoints = 16815
accept = 10419
rejected = 6396
matrix size = 31
fillins = 45
solver = Normal
Matrix Compiler1: 3.98 KB object code size  1.1/0.4/[0.3]
Matrix Compiler2: 3.21 KB object code size  0.4/0.4/[0.3]

