Circuit: * C:\Users\shane\Documents\GitHub\coLAS\LTSpice\HC-SR04_receiver.asc

Early termination of direct N-R iteration.
Direct Newton iteration failed to find .op point.  (Use ".option noopiter" to skip.)
Starting Gmin stepping
Gmin = 10
vernier = 0.5
Gmin = 1.86414
vernier = 0.666667
Gmin = 0.461516
vernier = 0.888888
vernier = 1
Gmin = 0.0567082
Gmin = 0.006089
Gmin = 0.000653801
Gmin = 7.02013e-05
Gmin = 7.53781e-06
Gmin = 8.09366e-07
Singular matrix:  Check node v:u2:ln#branch
   Iteration No. 2
Gmin = 0
Singular matrix:  Check node v:u2:ln#branch
   Iteration No. 1
Gmin stepping failed

Starting source stepping with srcstepmethod=0
Source Step = 3.0303%
Source Step = 33.3333%
Source Step = 63.6364%
Source Step = 93.9394%
Source stepping succeeded in finding the operating point.

.step rx=1
.step rx=2

Date: Sun Apr  5 17:26:44 2020
Total elapsed time: 0.614 seconds.

tnom = 27
temp = 27
method = modified trap
totiter = 3012
traniter = 2082
tranpoints = 1042
accept = 1042
rejected = 0
matrix size = 57
fillins = 297
solver = Normal
Matrix Compiler1: 22.79 KB object code size  4.7/3.1/[2.0]
Matrix Compiler2: 9.57 KB object code size  1.8/1.6/[1.3]

