Circuit: * C:\Users\shane\Documents\GitHub\coLAS\LTSpice\HC-SR04_receiver.asc

Early termination of direct N-R iteration.
Direct Newton iteration failed to find .op point.  (Use ".option noopiter" to skip.)
Starting Gmin stepping
Gmin = 10
vernier = 0.5
vernier = 0.25
vernier = 0.125
vernier = 0.0625
Gmin = 8.61953
vernier = 0.03125
vernier = 0.015625
vernier = 0.0078125
vernier = 0.00390625
Gmin = 8.47038
vernier = 0.00195313
vernier = 0.000976563
vernier = 0.000488281
Gmin = 0
Gmin stepping succeeded in finding the operating point.

.step rx=1
.step rx=2

Date: Sun Apr  5 23:52:14 2020
Total elapsed time: 0.829 seconds.

tnom = 27
temp = 27
method = modified trap
totiter = 4029
traniter = 2661
tranpoints = 1185
accept = 1114
rejected = 71
matrix size = 64
fillins = 265
solver = Normal
Matrix Compiler1: 21.17 KB object code size  5.5/2.8/[1.6]
Matrix Compiler2: 9.54 KB object code size  1.7/1.8/[1.2]

