Circuit: * C:\Users\shane\Documents\GitHub\coLAS\LTSpice\HC-SR04_receiver.asc

Early termination of direct N-R iteration.
Direct Newton iteration failed to find .op point.  (Use ".option noopiter" to skip.)
Starting Gmin stepping
Gmin = 10
vernier = 0.5
vernier = 0.25
vernier = 0.125
vernier = 0.0625
Gmin = 8.61953
vernier = 0.03125
vernier = 0.015625
vernier = 0.0078125
vernier = 0.00390625
Gmin = 8.47038
vernier = 0.00195313
vernier = 0.000976563
vernier = 0.000488281
Gmin = 0
Gmin stepping failed

Starting source stepping with srcstepmethod=0
Source Step = 3.0303%
Source Step = 33.3333%
Source Step = 63.6364%
Source Step = 93.9394%
Source stepping succeeded in finding the operating point.

.step rx=1
.step rx=2

Date: Mon Apr  6 22:31:47 2020
Total elapsed time: 1.214 seconds.

tnom = 27
temp = 27
method = modified trap
totiter = 5863
traniter = 4226
tranpoints = 1682
accept = 1350
rejected = 332
matrix size = 91
fillins = 589
solver = Normal
Thread vector: 12.1/8.5[2] 3.6/3.4[1] 7.0/3.9[2] 1.3/1.5[1]  2592/500
Matrix Compiler1: 62.95 KB object code size  10.2/5.7/[4.2]
Matrix Compiler2: 17.06 KB object code size  4.3/3.7/[2.2]

