Circuit: * C:\Users\shane\Documents\GitHub\coLAS\LTSpice\HC-SR04_receiver.asc

Early termination of direct N-R iteration.
Direct Newton iteration failed to find .op point.  (Use ".option noopiter" to skip.)
Starting Gmin stepping
Gmin = 10
vernier = 0.5
Gmin = 1.86414
vernier = 0.666667
vernier = 0.333333
vernier = 0.166667
vernier = 0.0833333
Gmin = 1.16377
vernier = 0.0416667
vernier = 0.0208333
vernier = 0.0104167
vernier = 0.00520833
Gmin = 1.14581
vernier = 0.00260417
vernier = 0.00130208
vernier = 0.000651042
vernier = 0.000488281
Gmin = 1.14487
Gmin = 0
Gmin stepping succeeded in finding the operating point.

.step rx=1
.step rx=2

Date: Wed Apr  8 08:27:19 2020
Total elapsed time: 1.295 seconds.

tnom = 27
temp = 27
method = modified trap
totiter = 5515
traniter = 3910
tranpoints = 1574
accept = 1276
rejected = 298
matrix size = 91
fillins = 622
solver = Normal
Thread vector: 15.3/13.5[2] 4.8/3.5[2] 7.2/3.4[2] 1.3/2.9[1]  2592/500
Matrix Compiler1: 54.71 KB object code size  10.6/7.0/[4.1]
Matrix Compiler2: 17.45 KB object code size  4.5/4.9/[2.7]

