Circuit: * C:\Users\shane\Documents\GitHub\coLAS\LTSpice\coLAS-analog-input\coLAS_analog.asc

C10: both pins shorted together -- ignoring.
WARNING: Node N004 is floating.
WARNING: Node NC_01 is floating.

WARNING: Less than two connections to node AC_TEST.  This node is used by V1.
WARNING: Less than two connections to node NC_01.  This node is used by R12.
Direct Newton iteration for .op point succeeded.
.step rx=1
.step rx=2

Date: Tue Apr 14 16:06:57 2020
Total elapsed time: 0.285 seconds.

tnom = 27
temp = 27
method = modified trap
totiter = 4238
traniter = 4206
tranpoints = 1738
accept = 1367
rejected = 371
matrix size = 79
fillins = 93
solver = Normal
Thread vector: 11.8/10.4[2] 5.5/2.8[2] 3.1/2.0[2] 0.5/0.9[1]  2592/500
Matrix Compiler1: 8.85 KB object code size  2.7/1.4/[0.9]
Matrix Compiler2: 7.78 KB object code size  1.1/1.6/[0.7]

