Circuit: * C:\Users\shane\Documents\GitHub\coLAS\LTSpice\coLAS-analog-input\coLAS_analog.asc

C10: both pins shorted together -- ignoring.
WARNING: Node N004 is floating.
WARNING: Node NC_01 is floating.

WARNING: Less than two connections to node AC_TEST.  This node is used by V1.
WARNING: Less than two connections to node NC_01.  This node is used by R12.
Direct Newton iteration for .op point succeeded.
.step rx=1
.step rx=2

Date: Tue Apr 14 10:33:48 2020
Total elapsed time: 0.385 seconds.

tnom = 27
temp = 27
method = modified trap
totiter = 7824
traniter = 7792
tranpoints = 2716
accept = 2066
rejected = 650
matrix size = 76
fillins = 92
solver = Normal
Matrix Compiler1: 8.61 KB object code size  2.8/1.2/[0.6]
Matrix Compiler2: off  [0.8]/1.2/1.1

