Circuit: * C:\Users\shane\Documents\GitHub\coLAS\LTSpice\coLAS-analog-input\coLAS_analog.asc

C10: both pins shorted together -- ignoring.
WARNING: Node N004 is floating.
WARNING: Node NC_01 is floating.

WARNING: Less than two connections to node AC_TEST.  This node is used by V1.
WARNING: Less than two connections to node NC_01.  This node is used by R12.
Direct Newton iteration for .op point succeeded.
.step rx=1
.step rx=2

Date: Thu Apr 16 14:50:39 2020
Total elapsed time: 0.378 seconds.

tnom = 27
temp = 27
method = modified trap
totiter = 7499
traniter = 7458
tranpoints = 2636
accept = 2022
rejected = 614
matrix size = 79
fillins = 93
solver = Normal
Thread vector: 12.6/10.3[2] 4.2/3.5[2] 2.9/2.3[2] 0.5/1.3[1]  2592/500
Matrix Compiler1: 8.85 KB object code size  2.7/1.1/[0.9]
Matrix Compiler2: 7.78 KB object code size  0.8/1.7/[0.7]

