Circuit: * C:\Users\shane\Documents\GitHub\coLAS\LTSpice\coLAS-analog-input\coLAS_analog.asc

C10: both pins shorted together -- ignoring.
WARNING: Node N004 is floating.
WARNING: Node NC_01 is floating.

WARNING: Less than two connections to node AC_TEST.  This node is used by V1.
WARNING: Less than two connections to node NC_01.  This node is used by R12.
Direct Newton iteration failed to find .op point.  (Use ".option noopiter" to skip.)
Starting Gmin stepping
Gmin = 10
vernier = 0.5
vernier = 0.25
vernier = 0.125
vernier = 0.0625
Gmin = 8.61953
vernier = 0.03125
vernier = 0.015625
vernier = 0.0078125
vernier = 0.00390625
Gmin = 8.47038
vernier = 0.00195313
vernier = 0.000976563
vernier = 0.000488281
Gmin = 0
Gmin stepping failed

Starting source stepping with srcstepmethod=0
Source Step = 3.0303%
Source Step = 33.3333%
Source Step = 54.7348%
vernier = 0.015625
Source Step = 54.5691%
Starting source stepping with srcstepmethod=1
Source Step = 3.0303%
vernier = 0.25
Source stepping failed

Pseudo Transient succeeded in finding the operating point at 286.785 ms.
.step rx=1
.step rx=2

Date: Sat Apr 18 09:27:39 2020
Total elapsed time: 2.218 seconds.

tnom = 27
temp = 27
method = modified trap
totiter = 16095
traniter = 8413
tranpoints = 2928
accept = 2031
rejected = 900
matrix size = 85
fillins = 142
solver = Normal
Thread vector: 14.0/10.0[2] 7.0/4.2[2] 5.4/4.3[2] 0.5/1.1[1]  2592/500
Matrix Compiler1: 11.18 KB object code size  4.8/2.2/[1.3]
Matrix Compiler2: 9.01 KB object code size  1.7/2.3/[0.8]

